Version 4
SHEET 1 2044 784
WIRE -240 -256 -352 -256
WIRE -96 -256 -240 -256
WIRE -80 -256 -96 -256
WIRE 96 -256 -80 -256
WIRE 272 -256 96 -256
WIRE 480 -256 400 -256
WIRE 624 -256 544 -256
WIRE 720 -256 624 -256
WIRE 864 -256 720 -256
WIRE 992 -256 864 -256
WIRE -352 -224 -352 -256
WIRE -240 -224 -240 -256
WIRE 96 -224 96 -256
WIRE 96 -224 64 -224
WIRE 144 -224 96 -224
WIRE 624 -224 624 -256
WIRE 64 -192 64 -224
WIRE 144 -192 144 -224
WIRE 992 -192 992 -256
WIRE 272 -144 272 -176
WIRE 400 -144 400 -176
WIRE 624 -128 624 -160
WIRE -352 -80 -352 -144
WIRE -240 -80 -240 -160
WIRE 64 -80 64 -112
WIRE 96 -80 64 -80
WIRE 144 -80 144 -128
WIRE 144 -80 96 -80
WIRE 992 -80 992 -112
WIRE 1088 -80 992 -80
WIRE 1264 -80 1168 -80
WIRE 720 -48 720 -256
WIRE 1264 -48 1264 -80
WIRE 96 -16 96 -80
WIRE 144 -16 96 -16
WIRE 272 -16 272 -64
WIRE 272 -16 208 -16
WIRE 400 -16 400 -64
WIRE -80 0 -80 -256
WIRE 992 16 992 -80
WIRE 1264 48 1264 16
WIRE -288 64 -352 64
WIRE -192 64 -288 64
WIRE 576 80 528 80
WIRE 720 80 720 32
WIRE 720 80 576 80
WIRE 944 96 848 96
WIRE 96 112 32 112
WIRE 272 112 272 -16
WIRE 272 112 96 112
WIRE 720 128 720 80
WIRE 848 128 848 96
WIRE 272 144 272 112
WIRE -192 160 -256 160
WIRE 992 160 992 112
WIRE 848 256 848 208
WIRE -80 272 -80 224
WIRE 96 272 -80 272
WIRE 272 272 272 208
WIRE 272 272 96 272
WIRE 96 304 96 272
WIRE 720 304 720 208
WIRE 432 368 432 352
WIRE 432 416 432 368
WIRE 528 432 528 80
WIRE 528 432 464 432
WIRE -256 448 -256 160
WIRE 192 448 -256 448
WIRE 304 448 192 448
WIRE 400 448 304 448
WIRE 528 464 464 464
WIRE 560 464 528 464
WIRE 656 464 640 464
WIRE 688 464 656 464
WIRE 816 464 768 464
WIRE 1056 464 816 464
WIRE 1056 496 1056 464
WIRE 432 512 432 480
WIRE 304 608 304 448
WIRE 416 608 304 608
WIRE 528 608 528 464
WIRE 528 608 480 608
WIRE 1056 624 1056 576
WIRE -352 688 -352 64
WIRE 656 688 656 464
WIRE 656 688 -352 688
FLAG 96 304 0
FLAG 624 -128 0
FLAG 720 304 0
FLAG -288 64 DONE
FLAG -96 -256 VIN
FLAG -240 -80 0
FLAG 432 512 0
FLAG 432 368 VIN
FLAG -352 -80 0
FLAG 400 -16 0
FLAG 992 160 0
FLAG 848 256 0
FLAG 1264 48 0
FLAG 192 448 CHARGE
FLAG 816 464 V_ADJUST
FLAG 576 80 FB
FLAG 96 112 SW
FLAG 864 -256 VOUT
FLAG 1056 624 0
SYMBOL cap -256 -224 R0
SYMATTR InstName C1
SYMATTR Value 4.7µF
SYMBOL cap 608 -224 R0
SYMATTR InstName C2
SYMATTR Value 4.7µ
SYMATTR SpiceLine V=250 Rser=0.001
SYMBOL ind2 256 -272 R0
WINDOW 3 37 74 Left 2
SYMATTR Value 15µ
SYMATTR InstName L1
SYMATTR Type ind
SYMATTR SpiceLine Ipk=10 Rser=0
SYMBOL ind2 416 -160 R180
WINDOW 0 36 80 Left 2
WINDOW 3 -65 30 Left 2
SYMATTR InstName L2
SYMATTR Value 3375µ
SYMATTR Type ind
SYMATTR SpiceLine Rser=0
SYMBOL diode 480 -240 R270
WINDOW 0 32 32 VTop 2
WINDOW 3 0 32 VBottom 2
SYMATTR InstName D1
SYMATTR Value GSD2004W-V
SYMBOL schottky 288 208 R180
WINDOW 0 24 64 Left 2
WINDOW 3 24 0 Left 2
SYMATTR InstName D2
SYMATTR Value B540C
SYMATTR Description Diode
SYMATTR Type diode
SYMBOL res 704 -64 R0
SYMATTR InstName R1
SYMATTR Value 10Meg
SYMBOL res 704 112 R0
SYMATTR InstName R2
SYMATTR Value 100k
SYMBOL voltage -352 -240 R0
WINDOW 123 0 0 Left 2
WINDOW 39 0 0 Left 2
SYMATTR InstName V1
SYMATTR Value 3V
SYMBOL res 656 448 R90
WINDOW 0 0 56 VBottom 2
WINDOW 3 32 56 VTop 2
SYMATTR InstName R3
SYMATTR Value 10k
SYMBOL res 784 448 R90
WINDOW 0 0 56 VBottom 2
WINDOW 3 32 56 VTop 2
SYMATTR InstName R4
SYMATTR Value 10k
SYMBOL res 976 -208 R0
SYMATTR InstName R5
SYMATTR Value 100k
SYMBOL voltage 848 112 R0
WINDOW 123 0 0 Left 2
WINDOW 39 0 0 Left 2
SYMATTR InstName V3
SYMATTR Value PULSE(0 5 0 1n 1n 0.00125 0.0025)
SYMBOL res 1184 -96 R90
WINDOW 0 0 56 VBottom 2
WINDOW 3 32 56 VTop 2
SYMATTR InstName R6
SYMATTR Value 20k
SYMBOL res 256 -160 R0
SYMATTR InstName R7
SYMATTR Value 1
SYMBOL res 384 -160 R0
SYMATTR InstName R8
SYMATTR Value 25
SYMBOL cap 1248 -48 R0
SYMATTR InstName C4
SYMATTR Value 100p
SYMBOL PowerProducts\\LT3468 -80 112 R0
SYMATTR InstName U1
SYMBOL voltage 1056 480 R0
WINDOW 123 0 0 Left 2
WINDOW 39 0 0 Left 2
SYMATTR InstName V4
SYMATTR Value {X}
SYMBOL res 48 -208 R0
SYMATTR InstName R9
SYMATTR Value 40k
SYMATTR SpiceLine pwr=0.1
SYMBOL cap 128 -192 R0
SYMATTR InstName C5
SYMATTR Value 50n
SYMBOL schottky 208 0 M270
WINDOW 0 32 32 VTop 2
WINDOW 3 0 32 VBottom 2
SYMATTR InstName D3
SYMATTR Value MBRS360
SYMATTR Description Diode
SYMATTR Type diode
SYMBOL Opamps\\UniversalOpamp2 432 448 M0
SYMATTR InstName U3
SYMATTR SpiceModel level.3b
SYMATTR Value2 Avol=1Meg GBW=2.8Meg Slew=1Meg
SYMBOL cap 480 592 R90
WINDOW 0 0 32 VBottom 2
WINDOW 3 32 32 VTop 2
SYMATTR InstName C3
SYMATTR Value 33p
SYMBOL nmos 944 16 R0
SYMATTR InstName M1
SYMATTR Value AP9465GEM
TEXT 264 -304 Left 2 !K L1 L2 0.9899.
TEXT -272 728 Left 2 !.tran 0.1 startup
TEXT -272 768 Left 2 !.step param X list 0.3 0.5 0.7 0.9
